data/open_dss/uhs0_1247/uhs0_1247--udt14717/Loads_scenario_60.dss
New Load.load_p1ulv1 conn=wye bus1=p1ulv1.1.2 kV=0.2080002494301389 Vminpu=0.8 Vmaxpu=1.2 model=1 kW=18.23 kvar=0.6592580864811803 Phases=2

New Load.load_p1ulv2 conn=wye bus1=p1ulv2.1.2 kV=0.2080002494301389 Vminpu=0.8 Vmaxpu=1.2 model=1 kW=4.54005 kvar=0.9195182361353397 Phases=2

New Load.load_p1ulv3 conn=wye bus1=p1ulv3.1.2 kV=0.2080002494301389 Vminpu=0.8 Vmaxpu=1.2 model=1 kW=17.3802 kvar=3.529200133551121 Phases=2

New Load.load_p1ulv4 conn=wye bus1=p1ulv4.1.2 kV=0.2080002494301389 Vminpu=0.8 Vmaxpu=1.2 model=1 kW=10.91 kvar=0.6906498322195993 Phases=2

New Load.load_p1ulv5 conn=wye bus1=p1ulv5.1.2 kV=0.2080002494301389 Vminpu=0.8 Vmaxpu=1.2 model=1 kW=18.63 kvar=0.7409012375272501 Phases=2

New Load.load_p1ulv6 conn=wye bus1=p1ulv6.1.2 kV=0.2080002494301389 Vminpu=0.8 Vmaxpu=1.2 model=1 kW=2.88003 kvar=0.5802786818127376 Phases=2

New Load.load_p1ulv7 conn=wye bus1=p1ulv7.1.2 kV=0.2080002494301389 Vminpu=0.8 Vmaxpu=1.2 model=1 kW=11.31 kvar=0.769665394243948 Phases=2

New Load.load_p1ulv8 conn=wye bus1=p1ulv8.1.2 kV=0.2080002494301389 Vminpu=0.8 Vmaxpu=1.2 model=1 kW=3.60004 kvar=0.7291334744808246 Phases=2

New Load.load_p1ulv9 conn=wye bus1=p1ulv9.1.2 kV=0.2080002494301389 Vminpu=0.8 Vmaxpu=1.2 model=1 kW=12.5901 kvar=1.0309123903570856 Phases=2

New Load.load_p1ulv10 conn=wye bus1=p1ulv10.1.2 kV=0.2080002494301389 Vminpu=0.8 Vmaxpu=1.2 model=1 kW=18.08 kvar=0.6302452033833459 Phases=2

New Load.load_p1ulv11 conn=wye bus1=p1ulv11.1.2 kV=0.2080002494301389 Vminpu=0.8 Vmaxpu=1.2 model=1 kW=17.88 kvar=0.5893205887930111 Phases=2

New Load.load_p1ulv12 conn=wye bus1=p1ulv12.1.2 kV=0.2080002494301389 Vminpu=0.8 Vmaxpu=1.2 model=1 kW=18.13 kvar=0.6404763570309296 Phases=2

New Load.load_p1ulv13 conn=wye bus1=p1ulv13.1.2 kV=0.2080002494301389 Vminpu=0.8 Vmaxpu=1.2 model=1 kW=17.78 kvar=0.5703014980185626 Phases=2

New Load.load_p1ulv14 conn=wye bus1=p1ulv14.1.2 kV=0.2080002494301389 Vminpu=0.8 Vmaxpu=1.2 model=1 kW=18.56 kvar=0.7191629458284491 Phases=2

New Load.load_p1ulv15 conn=wye bus1=p1ulv15.1.2 kV=0.2080002494301389 Vminpu=0.8 Vmaxpu=1.2 model=1 kW=19.06 kvar=0.8201678426594468 Phases=2

New Load.load_p1ulv16 conn=wye bus1=p1ulv16.1.2 kV=0.2080002494301389 Vminpu=0.8 Vmaxpu=1.2 model=1 kW=19.8601 kvar=0.9894153325398525 Phases=2

New Load.load_p1ulv17 conn=wye bus1=p1ulv17.1.2 kV=0.2080002494301389 Vminpu=0.8 Vmaxpu=1.2 model=1 kW=18.98 kvar=0.8102617463034154 Phases=2

New Load.load_p1ulv18 conn=wye bus1=p1ulv18.1.2 kV=0.2080002494301389 Vminpu=0.8 Vmaxpu=1.2 model=1 kW=19.12 kvar=0.8409115972996914 Phases=2

New Load.load_p1ulv19 conn=wye bus1=p1ulv19.1.2 kV=0.2080002494301389 Vminpu=0.8 Vmaxpu=1.2 model=1 kW=17.89 kvar=0.5898631429656088 Phases=2

New Load.load_p1ulv20 conn=wye bus1=p1ulv20.1.2 kV=0.2080002494301389 Vminpu=0.8 Vmaxpu=1.2 model=1 kW=2.81003 kvar=0.570600928141371 Phases=2

New Load.load_p1ulv21 conn=wye bus1=p1ulv21.1.2 kV=0.2080002494301389 Vminpu=0.8 Vmaxpu=1.2 model=1 kW=1.38001 kvar=0.28022298226153225 Phases=2

New Load.load_p1ulv22 conn=wye bus1=p1ulv22.1.2 kV=0.2080002494301389 Vminpu=0.8 Vmaxpu=1.2 model=1 kW=1.9700200000000003 kvar=0.4000296226222012 Phases=2

New Load.load_p1ulv23 conn=wye bus1=p1ulv23.1.2 kV=0.2080002494301389 Vminpu=0.8 Vmaxpu=1.2 model=1 kW=11.4401 kvar=2.3230113835190718 Phases=2

New Load.load_p1ulv24 conn=wye bus1=p1ulv24.1.2 kV=0.2080002494301389 Vminpu=0.8 Vmaxpu=1.2 model=1 kW=4.12004 kvar=0.8409115972996914 Phases=2

New Load.load_p1ulv25 conn=wye bus1=p1ulv25.1.2 kV=0.2080002494301389 Vminpu=0.8 Vmaxpu=1.2 model=1 kW=6.08006 kvar=1.2409571184449573 Phases=2

New Load.load_p1ulv26 conn=wye bus1=p1ulv26.1.2 kV=0.2080002494301389 Vminpu=0.8 Vmaxpu=1.2 model=1 kW=3.33003 kvar=0.6796683639857601 Phases=2

New Load.load_p1ulv27 conn=wye bus1=p1ulv27.1.2 kV=0.2080002494301389 Vminpu=0.8 Vmaxpu=1.2 model=1 kW=6.390060000000001 kvar=1.3008967685208197 Phases=2

New Load.load_p1ulv28 conn=wye bus1=p1ulv28.1.2.3 kV=0.48 Vminpu=0.8 Vmaxpu=1.2 model=1 kW=34.4403 kvar=6.993401189833298 Phases=3

New Load.load_p1ulv29 conn=wye bus1=p1ulv29.1.2 kV=0.2080002494301389 Vminpu=0.8 Vmaxpu=1.2 model=1 kW=12.3501 kvar=2.507794764696016 Phases=2

New Load.load_p1ulv30 conn=wye bus1=p1ulv30.1.2.3 kV=0.48 Vminpu=0.8 Vmaxpu=1.2 model=1 kW=67.8207 kvar=13.771580505260616 Phases=3

New Load.load_p1ulv31 conn=wye bus1=p1ulv31.1.2 kV=0.2080002494301389 Vminpu=0.8 Vmaxpu=1.2 model=1 kW=15.4502 kvar=3.1372969185274933 Phases=2

New Load.load_p1ulv32 conn=wye bus1=p1ulv32.1.2 kV=0.2080002494301389 Vminpu=0.8 Vmaxpu=1.2 model=1 kW=11.9501 kvar=2.4328169803570936 Phases=2

New Load.load_p1ulv33 conn=wye bus1=p1ulv33.1.2 kV=0.2080002494301389 Vminpu=0.8 Vmaxpu=1.2 model=1 kW=17.7502 kvar=3.6043318379857032 Phases=2

New Load.load_p1ulv34 conn=wye bus1=p1ulv34.1.2.3 kV=0.48 Vminpu=0.8 Vmaxpu=1.2 model=1 kW=29.610299999999995 kvar=6.012627858971056 Phases=3

New Load.load_p1ulv35 conn=wye bus1=p1ulv35.1.2.3 kV=0.48 Vminpu=0.8 Vmaxpu=1.2 model=1 kW=21.820199999999996 kvar=4.430780586766101 Phases=3

New Load.load_p1ulv36 conn=wye bus1=p1ulv36.1.2.3 kV=0.48 Vminpu=0.8 Vmaxpu=1.2 model=1 kW=28.660299999999996 kvar=5.819722131368753 Phases=3

New Load.load_p1ulv40 conn=wye bus1=p1ulv40.1.2.3 kV=0.48 Vminpu=0.8 Vmaxpu=1.2 model=1 kW=29.0202 kvar=4.369862988575898 Phases=3

New Load.load_p1ulv41 conn=wye bus1=p1ulv41.1.2 kV=0.2080002494301389 Vminpu=0.8 Vmaxpu=1.2 model=1 kW=9.28 kvar=0.35958147291422454 Phases=2

New Load.load_p1ulv42 conn=wye bus1=p1ulv42.1.2 kV=0.2080002494301389 Vminpu=0.8 Vmaxpu=1.2 model=1 kW=18.2001 kvar=2.1727479746499094 Phases=2

New Load.load_p1ulv43 conn=wye bus1=p1ulv43.1.2 kV=0.2080002494301389 Vminpu=0.8 Vmaxpu=1.2 model=1 kW=10.67 kvar=0.6403771062023346 Phases=2

New Load.load_p1ulv44 conn=wye bus1=p1ulv44.1.2 kV=0.2080002494301389 Vminpu=0.8 Vmaxpu=1.2 model=1 kW=22.5202 kvar=3.049981694454871 Phases=2

New Load.load_p1umv1 conn=wye bus1=p1umv1.1.2.3 kV=12.47 Vminpu=0.8 Vmaxpu=1.2 model=1 kW=1091.73 kvar=221.68523157396154 Phases=3

New Load.load_p1ulv100 conn=wye bus1=p1ulv100.1.2 kV=0.2080002494301389 Vminpu=0.8 Vmaxpu=1.2 model=1 kW=18.46 kvar=0.7007765735124853 Phases=2

New Load.load_p1ulv101 conn=wye bus1=p1ulv101.1.2 kV=0.2080002494301389 Vminpu=0.8 Vmaxpu=1.2 model=1 kW=19.05 kvar=0.8202741461167985 Phases=2

New Load.load_p1ulv105 conn=wye bus1=p1ulv105.1.2 kV=0.2080002494301389 Vminpu=0.8 Vmaxpu=1.2 model=1 kW=17.47 kvar=0.5002650705650844 Phases=2

New Load.load_p1ulv108 conn=wye bus1=p1ulv108.1.2 kV=0.2080002494301389 Vminpu=0.8 Vmaxpu=1.2 model=1 kW=20.6601 kvar=1.149324202708102 Phases=2

New Load.load_p1ulv109 conn=wye bus1=p1ulv109.1.2 kV=0.2080002494301389 Vminpu=0.8 Vmaxpu=1.2 model=1 kW=19.9501 kvar=0.999958579116559 Phases=2

New Load.load_p1ulv110 conn=wye bus1=p1ulv110.1.2 kV=0.2080002494301389 Vminpu=0.8 Vmaxpu=1.2 model=1 kW=18.63 kvar=0.7409012375272501 Phases=2

New Load.load_p1ulv111 conn=wye bus1=p1ulv111.1.2 kV=0.2080002494301389 Vminpu=0.8 Vmaxpu=1.2 model=1 kW=17.94 kvar=0.6000682817178988 Phases=2

New Load.load_p1ulv112 conn=wye bus1=p1ulv112.1.2 kV=0.2080002494301389 Vminpu=0.8 Vmaxpu=1.2 model=1 kW=28.1101 kvar=2.662119346777859 Phases=2

New Load.load_p1ulv113 conn=wye bus1=p1ulv113.1.2 kV=0.2080002494301389 Vminpu=0.8 Vmaxpu=1.2 model=1 kW=16.7 kvar=0.3398297485169116 Phases=2

New Load.load_p1ulv114 conn=wye bus1=p1ulv114.1.2 kV=0.2080002494301389 Vminpu=0.8 Vmaxpu=1.2 model=1 kW=18.28 kvar=0.6694632252334703 Phases=2

New Load.load_p1ulv115 conn=wye bus1=p1ulv115.1.2 kV=0.2080002494301389 Vminpu=0.8 Vmaxpu=1.2 model=1 kW=18.4 kvar=0.6904055379154336 Phases=2

New Load.load_p1ulv116 conn=wye bus1=p1ulv116.1.2 kV=0.2080002494301389 Vminpu=0.8 Vmaxpu=1.2 model=1 kW=16.94 kvar=0.38985885154138106 Phases=2

New Load.load_p1ulv117 conn=wye bus1=p1ulv117.1.2 kV=0.2080002494301389 Vminpu=0.8 Vmaxpu=1.2 model=1 kW=17.66 kvar=0.5401421290462703 Phases=2

New Load.load_p1ulv118 conn=wye bus1=p1ulv118.1.2 kV=0.2080002494301389 Vminpu=0.8 Vmaxpu=1.2 model=1 kW=20.2201 kvar=1.059976361442534 Phases=2

New Load.load_p1ulv119 conn=wye bus1=p1ulv119.1.2 kV=0.2080002494301389 Vminpu=0.8 Vmaxpu=1.2 model=1 kW=18.67 kvar=0.7394527047982206 Phases=2

New Load.load_p1ulv120 conn=wye bus1=p1ulv120.1.2 kV=0.2080002494301389 Vminpu=0.8 Vmaxpu=1.2 model=1 kW=19.94 kvar=1.0005321664784275 Phases=2

New Load.load_p1ulv121 conn=wye bus1=p1ulv121.1.2 kV=0.2080002494301389 Vminpu=0.8 Vmaxpu=1.2 model=1 kW=31.4002 kvar=3.3302026461297976 Phases=2

New Load.load_p1ulv122 conn=wye bus1=p1ulv122.1.2 kV=0.2080002494301389 Vminpu=0.8 Vmaxpu=1.2 model=1 kW=18.35 kvar=0.6802526048837334 Phases=2

New Load.load_p1ulv123 conn=wye bus1=p1ulv123.1.2 kV=0.2080002494301389 Vminpu=0.8 Vmaxpu=1.2 model=1 kW=16.77 kvar=0.36034298554586675 Phases=2

New Load.load_p1ulv124 conn=wye bus1=p1ulv124.1.2 kV=0.2080002494301389 Vminpu=0.8 Vmaxpu=1.2 model=1 kW=18.07 kvar=0.620176126836135 Phases=2

New Load.load_p1ulv125 conn=wye bus1=p1ulv125.1.2 kV=0.2080002494301389 Vminpu=0.8 Vmaxpu=1.2 model=1 kW=17.27 kvar=0.4597581053935405 Phases=2

New Load.load_p1ulv126 conn=wye bus1=p1ulv126.1.2 kV=0.2080002494301389 Vminpu=0.8 Vmaxpu=1.2 model=1 kW=19.18 kvar=0.8509780077632708 Phases=2

New Load.load_p1ulv127 conn=wye bus1=p1ulv127.1.2 kV=0.2080002494301389 Vminpu=0.8 Vmaxpu=1.2 model=1 kW=16.66 kvar=0.33967839356123863 Phases=2

New Load.load_p1ulv128 conn=wye bus1=p1ulv128.1.2.3 kV=0.48 Vminpu=0.8 Vmaxpu=1.2 model=1 kW=37.7702 kvar=4.623686314368404 Phases=3

New Load.load_p1ulv129 conn=wye bus1=p1ulv129.1.2 kV=0.2080002494301389 Vminpu=0.8 Vmaxpu=1.2 model=1 kW=18.04 kvar=0.6204785592224786 Phases=2

New Load.load_p1ulv130 conn=wye bus1=p1ulv130.1.2 kV=0.2080002494301389 Vminpu=0.8 Vmaxpu=1.2 model=1 kW=19.28 kvar=0.8690991898599637 Phases=2

New Load.load_p1ulv131 conn=wye bus1=p1ulv131.1.2 kV=0.2080002494301389 Vminpu=0.8 Vmaxpu=1.2 model=1 kW=18.41 kvar=0.6906498322195993 Phases=2

New Load.load_p1ulv132 conn=wye bus1=p1ulv132.1.2 kV=0.2080002494301389 Vminpu=0.8 Vmaxpu=1.2 model=1 kW=22.7101 kvar=1.5696281657820117 Phases=2

New Load.load_p1ulv133 conn=wye bus1=p1ulv133.1.2 kV=0.2080002494301389 Vminpu=0.8 Vmaxpu=1.2 model=1 kW=18.93 kvar=0.8000826809384517 Phases=2

New Load.load_p1ulv134 conn=wye bus1=p1ulv134.1.2 kV=0.2080002494301389 Vminpu=0.8 Vmaxpu=1.2 model=1 kW=19.41 kvar=0.900101402062973 Phases=2

New Load.load_p1ulv135 conn=wye bus1=p1ulv135.1.2 kV=0.2080002494301389 Vminpu=0.8 Vmaxpu=1.2 model=1 kW=18.91 kvar=0.7898663736101474 Phases=2

New Load.load_p1ulv136 conn=wye bus1=p1ulv136.1.2 kV=0.2080002494301389 Vminpu=0.8 Vmaxpu=1.2 model=1 kW=19.6301 kvar=0.9401717516684716 Phases=2

New Load.load_p1ulv137 conn=wye bus1=p1ulv137.1.2 kV=0.2080002494301389 Vminpu=0.8 Vmaxpu=1.2 model=1 kW=16.48 kvar=0.2997535676176835 Phases=2

New Load.load_p1ulv138 conn=wye bus1=p1ulv138.1.2 kV=0.2080002494301389 Vminpu=0.8 Vmaxpu=1.2 model=1 kW=17.91 kvar=0.5893824192907394 Phases=2

New Load.load_p1ulv139 conn=wye bus1=p1ulv139.1.2 kV=0.2080002494301389 Vminpu=0.8 Vmaxpu=1.2 model=1 kW=19.5601 kvar=0.9307188593475932 Phases=2

New Load.load_p1ulv140 conn=wye bus1=p1ulv140.1.2 kV=0.2080002494301389 Vminpu=0.8 Vmaxpu=1.2 model=1 kW=34.4602 kvar=3.95156214766985 Phases=2

New Load.load_p1ulv141 conn=wye bus1=p1ulv141.1.2 kV=0.2080002494301389 Vminpu=0.8 Vmaxpu=1.2 model=1 kW=17.02 kvar=0.4101825556539014 Phases=2

New Load.load_p1ulv142 conn=wye bus1=p1ulv142.1.2 kV=0.2080002494301389 Vminpu=0.8 Vmaxpu=1.2 model=1 kW=21.4001 kvar=1.2995876115772655 Phases=2

New Load.load_p1ulv143 conn=wye bus1=p1ulv143.1.2 kV=0.2080002494301389 Vminpu=0.8 Vmaxpu=1.2 model=1 kW=17.94 kvar=0.6000682817178988 Phases=2

New Load.load_p1ulv144 conn=wye bus1=p1ulv144.1.2 kV=0.2080002494301389 Vminpu=0.8 Vmaxpu=1.2 model=1 kW=17.98 kvar=0.6004270372747549 Phases=2

New Load.load_p1ulv145 conn=wye bus1=p1ulv145.1.2 kV=0.2080002494301389 Vminpu=0.8 Vmaxpu=1.2 model=1 kW=21.2601 kvar=1.2711593990885048 Phases=2

New Load.load_p1ulv1541 conn=wye bus1=p1ulv1541.1.2 kV=0.2080002494301389 Vminpu=0.8 Vmaxpu=1.2 model=1 kW=18.41 kvar=0.6906498322195993 Phases=2

New Load.load_p1ulv1543 conn=wye bus1=p1ulv1543.1.2 kV=0.2080002494301389 Vminpu=0.8 Vmaxpu=1.2 model=1 kW=19.35 kvar=0.8810345938741143 Phases=2

New Load.load_p1ulv1545 conn=wye bus1=p1ulv1545.1.2.3 kV=0.48 Vminpu=0.8 Vmaxpu=1.2 model=1 kW=43.9603 kvar=5.880639729558955 Phases=3

New Load.load_p1ulv1547 conn=wye bus1=p1ulv1547.1.2 kV=0.2080002494301389 Vminpu=0.8 Vmaxpu=1.2 model=1 kW=19.51 kvar=0.9205137205953031 Phases=2

New Load.load_p1ulv1548 conn=wye bus1=p1ulv1548.1.2 kV=0.2080002494301389 Vminpu=0.8 Vmaxpu=1.2 model=1 kW=18.26 kvar=0.6602696083409414 Phases=2

New Load.load_p1ulv1550 conn=wye bus1=p1ulv1550.1.2 kV=0.2080002494301389 Vminpu=0.8 Vmaxpu=1.2 model=1 kW=18.69 kvar=0.7492945800859013 Phases=2

New Load.load_p1ulv1551 conn=wye bus1=p1ulv1551.1.2.3 kV=0.48 Vminpu=0.8 Vmaxpu=1.2 model=1 kW=67.8705 kvar=10.735812917050124 Phases=3

New Load.load_p1ulv1552 conn=wye bus1=p1ulv1552.1.2 kV=0.2080002494301389 Vminpu=0.8 Vmaxpu=1.2 model=1 kW=19.29 kvar=0.8711297764663039 Phases=2

New Load.load_p1ulv1560 conn=wye bus1=p1ulv1560.1.2 kV=0.2080002494301389 Vminpu=0.8 Vmaxpu=1.2 model=1 kW=19.49 kvar=0.9093894694941951 Phases=2

New Load.load_p1ulv1561 conn=wye bus1=p1ulv1561.1.2 kV=0.2080002494301389 Vminpu=0.8 Vmaxpu=1.2 model=1 kW=18.25 kvar=0.659946738820333 Phases=2

New Load.load_p1ulv1562 conn=wye bus1=p1ulv1562.1.2 kV=0.2080002494301389 Vminpu=0.8 Vmaxpu=1.2 model=1 kW=18.44 kvar=0.7003258045487328 Phases=2

New Load.load_p1ulv1568 conn=wye bus1=p1ulv1568.1.2 kV=0.2080002494301389 Vminpu=0.8 Vmaxpu=1.2 model=1 kW=20.0701 kvar=1.0295175623474335 Phases=2

New Load.load_p1ulv1569 conn=wye bus1=p1ulv1569.1.2 kV=0.2080002494301389 Vminpu=0.8 Vmaxpu=1.2 model=1 kW=23.9101 kvar=1.8092709415284354 Phases=2

New Load.load_p1ulv1894 conn=wye bus1=p1ulv1894.1.2 kV=0.2080002494301389 Vminpu=0.8 Vmaxpu=1.2 model=1 kW=19.41 kvar=0.900101402062973 Phases=2

New Load.load_p1ulv1895 conn=wye bus1=p1ulv1895.1.2 kV=0.2080002494301389 Vminpu=0.8 Vmaxpu=1.2 model=1 kW=18.33 kvar=0.6796683639857601 Phases=2

New Load.load_p1ulv1896 conn=wye bus1=p1ulv1896.1.2.3 kV=0.48 Vminpu=0.8 Vmaxpu=1.2 model=1 kW=80.0407 kvar=13.207077428698085 Phases=3

New Load.load_p1ulv1922 conn=wye bus1=p1ulv1922.1.2.3 kV=0.48 Vminpu=0.8 Vmaxpu=1.2 model=1 kW=172.612 kvar=32.00448161984668 Phases=3

New Load.load_p1ulv1923 conn=wye bus1=p1ulv1923.1.2.3 kV=0.48 Vminpu=0.8 Vmaxpu=1.2 model=1 kW=121.971 kvar=21.721387986680075 Phases=3

New Load.load_p1ulv1924 conn=wye bus1=p1ulv1924.1.2.3 kV=0.48 Vminpu=0.8 Vmaxpu=1.2 model=1 kW=101.5309 kvar=17.57084865745496 Phases=3

New Load.load_p1ulv1925 conn=wye bus1=p1ulv1925.1.2 kV=0.2080002494301389 Vminpu=0.8 Vmaxpu=1.2 model=1 kW=16.99 kvar=0.39990665650064394 Phases=2

New Load.load_p1ulv1926 conn=wye bus1=p1ulv1926.1.2.3 kV=0.48 Vminpu=0.8 Vmaxpu=1.2 model=1 kW=220.912 kvar=41.81221492846908 Phases=3

New Load.load_p1ulv1927 conn=wye bus1=p1ulv1927.1.2 kV=0.2080002494301389 Vminpu=0.8 Vmaxpu=1.2 model=1 kW=22.0101 kvar=1.419783306700424 Phases=2

New Load.load_p1ulv1928 conn=wye bus1=p1ulv1928.1.2 kV=0.2080002494301389 Vminpu=0.8 Vmaxpu=1.2 model=1 kW=20.28 kvar=1.069394007270052 Phases=2

New Load.load_p1ulv1929 conn=wye bus1=p1ulv1929.1.2 kV=0.2080002494301389 Vminpu=0.8 Vmaxpu=1.2 model=1 kW=26.1801 kvar=2.2702161317542315 Phases=2

New Load.load_p1ulv1930 conn=wye bus1=p1ulv1930.1.2 kV=0.2080002494301389 Vminpu=0.8 Vmaxpu=1.2 model=1 kW=19.28 kvar=0.8690991898599637 Phases=2

New Load.load_p1ulv1931 conn=wye bus1=p1ulv1931.1.2 kV=0.2080002494301389 Vminpu=0.8 Vmaxpu=1.2 model=1 kW=19.04 kvar=0.8203651113078028 Phases=2

New Load.load_p1ulv3988 conn=wye bus1=p1ulv3988.1.2 kV=0.2080002494301389 Vminpu=0.8 Vmaxpu=1.2 model=1 kW=1.38001 kvar=0.28022298226153225 Phases=2

New Load.load_p1ulv3989 conn=wye bus1=p1ulv3989.1.2 kV=0.2080002494301389 Vminpu=0.8 Vmaxpu=1.2 model=1 kW=1.47001 kvar=0.3000331203450741 Phases=2

New Load.load_p1ulv3990 conn=wye bus1=p1ulv3990.1.2 kV=0.2080002494301389 Vminpu=0.8 Vmaxpu=1.2 model=1 kW=1.38001 kvar=0.28022298226153225 Phases=2

New Load.load_p1ulv3991 conn=wye bus1=p1ulv3991.1.2 kV=0.2080002494301389 Vminpu=0.8 Vmaxpu=1.2 model=1 kW=1.38001 kvar=0.28022298226153225 Phases=2

New Load.load_p1ulv3992 conn=wye bus1=p1ulv3992.1.2 kV=0.2080002494301389 Vminpu=0.8 Vmaxpu=1.2 model=1 kW=1.38001 kvar=0.28022298226153225 Phases=2

New Load.load_p1ulv3993 conn=wye bus1=p1ulv3992.1.2 kV=0.2080002494301389 Vminpu=0.8 Vmaxpu=1.2 model=1 kW=1.38001 kvar=0.28022298226153225 Phases=2

New Load.load_p1ulv3994 conn=wye bus1=p1ulv3994.1.2 kV=0.2080002494301389 Vminpu=0.8 Vmaxpu=1.2 model=1 kW=1.38001 kvar=0.28022298226153225 Phases=2

New Load.load_p1ulv3995 conn=wye bus1=p1ulv3994.1.2 kV=0.2080002494301389 Vminpu=0.8 Vmaxpu=1.2 model=1 kW=1.38001 kvar=0.28022298226153225 Phases=2

New Load.load_p1ulv3996 conn=wye bus1=p1ulv3996.1.2 kV=0.2080002494301389 Vminpu=0.8 Vmaxpu=1.2 model=1 kW=1.38001 kvar=0.28022298226153225 Phases=2

New Load.load_p1ulv3997 conn=wye bus1=p1ulv3997.1.2 kV=0.2080002494301389 Vminpu=0.8 Vmaxpu=1.2 model=1 kW=1.38001 kvar=0.28022298226153225 Phases=2

New Load.load_p1ulv3998 conn=wye bus1=p1ulv3997.1.2 kV=0.2080002494301389 Vminpu=0.8 Vmaxpu=1.2 model=1 kW=1.38001 kvar=0.28022298226153225 Phases=2

New Load.load_p1ulv3999 conn=wye bus1=p1ulv3999.1.2 kV=0.2080002494301389 Vminpu=0.8 Vmaxpu=1.2 model=1 kW=1.38001 kvar=0.28022298226153225 Phases=2

New Load.load_p1ulv4453 conn=wye bus1=p1ulv4453.1.2 kV=0.2080002494301389 Vminpu=0.8 Vmaxpu=1.2 model=1 kW=10.35 kvar=0.5802128332421591 Phases=2

New Load.load_p1ulv8813 conn=wye bus1=p1ulv8813.1.2 kV=0.2080002494301389 Vminpu=0.8 Vmaxpu=1.2 model=1 kW=3.7100400000000002 kvar=0.7494644148777485 Phases=2

New Load.load_p1ulv8814 conn=wye bus1=p1ulv8814.1.2 kV=0.2080002494301389 Vminpu=0.8 Vmaxpu=1.2 model=1 kW=3.74004 kvar=0.7594475131176014 Phases=2

New Load.load_p1ulv11833 conn=wye bus1=p1ulv11833.1.2 kV=0.2080002494301389 Vminpu=0.8 Vmaxpu=1.2 model=1 kW=18.28 kvar=0.6694632252334703 Phases=2

New Load.load_p1ulv11834 conn=wye bus1=p1ulv11834.1.2 kV=0.2080002494301389 Vminpu=0.8 Vmaxpu=1.2 model=1 kW=18.44 kvar=0.7003258045487328 Phases=2

New Load.load_p1ulv11835 conn=wye bus1=p1ulv11835.1.2 kV=0.2080002494301389 Vminpu=0.8 Vmaxpu=1.2 model=1 kW=17.78 kvar=0.5601303263507202 Phases=2

New Load.load_p1ulv11836 conn=wye bus1=p1ulv11836.1.2 kV=0.2080002494301389 Vminpu=0.8 Vmaxpu=1.2 model=1 kW=18.25 kvar=0.659946738820333 Phases=2

New Load.load_p1ulv11837 conn=wye bus1=p1ulv11837.1.2 kV=0.2080002494301389 Vminpu=0.8 Vmaxpu=1.2 model=1 kW=17.46 kvar=0.49952836633286324 Phases=2

New Load.load_p1ulv12630 conn=wye bus1=p1ulv12630.1.2 kV=0.2080002494301389 Vminpu=0.8 Vmaxpu=1.2 model=1 kW=18.2 kvar=0.6497938057886328 Phases=2

New Load.load_p1ulv12631 conn=wye bus1=p1ulv12631.1.2 kV=0.2080002494301389 Vminpu=0.8 Vmaxpu=1.2 model=1 kW=18.04 kvar=0.6204785592224786 Phases=2

New Load.load_p1ulv12634 conn=wye bus1=p1ulv12634.1.2 kV=0.2080002494301389 Vminpu=0.8 Vmaxpu=1.2 model=1 kW=18.03 kvar=0.6200140497357622 Phases=2

New Load.load_p1ulv12636 conn=wye bus1=p1ulv12636.1.2 kV=0.2080002494301389 Vminpu=0.8 Vmaxpu=1.2 model=1 kW=19.15 kvar=0.8405276287025704 Phases=2

New Load.load_p1ulv12645 conn=wye bus1=p1ulv12645.1.2 kV=0.2080002494301389 Vminpu=0.8 Vmaxpu=1.2 model=1 kW=19.14 kvar=1.3592956687066866 Phases=2

New Load.load_p1ulv14604 conn=wye bus1=p1ulv14604.1.2 kV=0.2080002494301389 Vminpu=0.8 Vmaxpu=1.2 model=1 kW=16.73 kvar=0.350389299430372 Phases=2

New Load.load_p1ulv14608 conn=wye bus1=p1ulv14608.1.2 kV=0.2080002494301389 Vminpu=0.8 Vmaxpu=1.2 model=1 kW=18.01 kvar=0.6096359018765115 Phases=2

New Load.load_p1ulv14610 conn=wye bus1=p1ulv14610.1.2 kV=0.2080002494301389 Vminpu=0.8 Vmaxpu=1.2 model=1 kW=18.3 kvar=0.6700996718520332 Phases=2

New Load.load_p1ulv14611 conn=wye bus1=p1ulv14611.1.2 kV=0.2080002494301389 Vminpu=0.8 Vmaxpu=1.2 model=1 kW=18 kvar=0.6107500293370508 Phases=2

New Load.load_p1ulv14612 conn=wye bus1=p1ulv14612.1.2 kV=0.2080002494301389 Vminpu=0.8 Vmaxpu=1.2 model=1 kW=16.38 kvar=0.28022298226153225 Phases=2

New Load.load_p1ulv14616 conn=wye bus1=p1ulv14616.1.2 kV=0.2080002494301389 Vminpu=0.8 Vmaxpu=1.2 model=1 kW=18.77 kvar=0.7596010602602379 Phases=2

New Load.load_p1ulv26024 conn=wye bus1=p1ulv26024.1.2 kV=0.2080002494301389 Vminpu=0.8 Vmaxpu=1.2 model=1 kW=3.9400400000000007 kvar=0.8000592452444024 Phases=2

New Load.load_p1ulv26027 conn=wye bus1=p1ulv26027.1.2 kV=0.2080002494301389 Vminpu=0.8 Vmaxpu=1.2 model=1 kW=3.91004 kvar=0.7898663736101474 Phases=2

New Load.load_p1ulv26072 conn=wye bus1=p1ulv26072.1.2 kV=0.2080002494301389 Vminpu=0.8 Vmaxpu=1.2 model=1 kW=3.79004 kvar=0.7696004461493017 Phases=2

New Load.load_p1ulv26086 conn=wye bus1=p1ulv26086.1.2 kV=0.2080002494301389 Vminpu=0.8 Vmaxpu=1.2 model=1 kW=4.30004 kvar=0.8709078525812284 Phases=2

New Load.load_p1ulv26091 conn=wye bus1=p1ulv26091.1.2 kV=0.2080002494301389 Vminpu=0.8 Vmaxpu=1.2 model=1 kW=3.38003 kvar=0.6898735027380501 Phases=2

New Load.load_p1ulv26093 conn=wye bus1=p1ulv26093.1.2 kV=0.2080002494301389 Vminpu=0.8 Vmaxpu=1.2 model=1 kW=3.7500400000000003 kvar=0.7595136983594827 Phases=2

New Load.load_p1ulv26152 conn=wye bus1=p1ulv26152.1.2 kV=0.2080002494301389 Vminpu=0.8 Vmaxpu=1.2 model=1 kW=5.33005 kvar=1.0795207485629381 Phases=2

New Load.load_p1ulv26158 conn=wye bus1=p1ulv26158.1.2 kV=0.2080002494301389 Vminpu=0.8 Vmaxpu=1.2 model=1 kW=2.79003 kvar=0.569452865461029 Phases=2

New Load.load_p1ulv26222 conn=wye bus1=p1ulv26222.1.2 kV=0.2080002494301389 Vminpu=0.8 Vmaxpu=1.2 model=1 kW=3.65004 kvar=0.7392602157737106 Phases=2

New Load.load_p1ulv26226 conn=wye bus1=p1ulv26226.1.2 kV=0.2080002494301389 Vminpu=0.8 Vmaxpu=1.2 model=1 kW=3.17003 kvar=0.6403771062023346 Phases=2

New Load.load_p1ulv26228 conn=wye bus1=p1ulv26228.1.2 kV=0.2080002494301389 Vminpu=0.8 Vmaxpu=1.2 model=1 kW=3.66004 kvar=0.7393639251946486 Phases=2

New Load.load_p1ulv26273 conn=wye bus1=p1ulv26273.1.2.3 kV=0.48 Vminpu=0.8 Vmaxpu=1.2 model=1 kW=41.6304 kvar=8.453413265657852 Phases=3

New Load.load_p1ulv26290 conn=wye bus1=p1ulv26290.1.2 kV=0.2080002494301389 Vminpu=0.8 Vmaxpu=1.2 model=1 kW=2.92003 kvar=0.5898746577868357 Phases=2

New Load.load_p1ulv26293 conn=wye bus1=p1ulv26293.1.2 kV=0.2080002494301389 Vminpu=0.8 Vmaxpu=1.2 model=1 kW=3.17003 kvar=0.6403771062023346 Phases=2

New Load.load_p1ulv26339 conn=wye bus1=p1ulv26339.1.2.3 kV=0.48 Vminpu=0.8 Vmaxpu=1.2 model=1 kW=77.3708 kvar=15.71081102018142 Phases=3

New Load.load_p1ulv26357 conn=wye bus1=p1ulv26357.1.2 kV=0.2080002494301389 Vminpu=0.8 Vmaxpu=1.2 model=1 kW=3.12003 kvar=0.6302766165192346 Phases=2

New Load.load_p1ulv26362 conn=wye bus1=p1ulv26362.1.2 kV=0.2080002494301389 Vminpu=0.8 Vmaxpu=1.2 model=1 kW=3.53004 kvar=0.7204909600226704 Phases=2

New Load.load_p1ulv26365 conn=wye bus1=p1ulv26365.1.2 kV=0.2080002494301389 Vminpu=0.8 Vmaxpu=1.2 model=1 kW=2.79003 kvar=0.569452865461029 Phases=2

New Load.load_p1ulv26419 conn=wye bus1=p1ulv26419.1.2.3 kV=0.48 Vminpu=0.8 Vmaxpu=1.2 model=1 kW=118.81100000000002 kvar=24.125602528586686 Phases=3

New Load.load_p1ulv26434 conn=wye bus1=p1ulv26434.1.2 kV=0.2080002494301389 Vminpu=0.8 Vmaxpu=1.2 model=1 kW=3.3000300000000005 kvar=0.6700996718520332 Phases=2

New Load.load_p1ulv26441 conn=wye bus1=p1ulv26441.1.2 kV=0.2080002494301389 Vminpu=0.8 Vmaxpu=1.2 model=1 kW=9.09009 kvar=1.8505724056680872 Phases=2

New Load.load_p1ulv26484 conn=wye bus1=p1ulv26484.1.2 kV=0.2080002494301389 Vminpu=0.8 Vmaxpu=1.2 model=1 kW=4.450040000000001 kvar=0.898951662187625 Phases=2

New Load.load_p1ulv26501 conn=wye bus1=p1ulv26501.1.2 kV=0.2080002494301389 Vminpu=0.8 Vmaxpu=1.2 model=1 kW=3.27003 kvar=0.660578085568534 Phases=2

New Load.load_p1ulv26503 conn=wye bus1=p1ulv26503.1.2 kV=0.2080002494301389 Vminpu=0.8 Vmaxpu=1.2 model=1 kW=3.39003 kvar=0.6901467391837689 Phases=2

New Load.load_p1ulv26506 conn=wye bus1=p1ulv26506.1.2 kV=0.2080002494301389 Vminpu=0.8 Vmaxpu=1.2 model=1 kW=19.0402 kvar=3.866277510203568 Phases=2

New Load.load_p1ulv26509 conn=wye bus1=p1ulv26509.1.2 kV=0.2080002494301389 Vminpu=0.8 Vmaxpu=1.2 model=1 kW=3.68004 kvar=0.7491873541136322 Phases=2

New Load.load_p1ulv26551 conn=wye bus1=p1ulv26551.1.2.3 kV=0.48 Vminpu=0.8 Vmaxpu=1.2 model=1 kW=165.93200000000002 kvar=33.693929676321595 Phases=3

New Load.load_p1ulv26572 conn=wye bus1=p1ulv26572.1.2 kV=0.2080002494301389 Vminpu=0.8 Vmaxpu=1.2 model=1 kW=19.5102 kvar=3.9617150807015507 Phases=2

New Load.load_p1ulv26576 conn=wye bus1=p1ulv26576.1.2 kV=0.2080002494301389 Vminpu=0.8 Vmaxpu=1.2 model=1 kW=3.64004 kvar=0.739141647054201 Phases=2

New Load.load_p1ulv26579 conn=wye bus1=p1ulv26579.1.2 kV=0.2080002494301389 Vminpu=0.8 Vmaxpu=1.2 model=1 kW=3.52004 kvar=0.7092301716051945 Phases=2

New Load.load_p1ulv26662 conn=wye bus1=p1ulv26662.1.2 kV=0.2080002494301389 Vminpu=0.8 Vmaxpu=1.2 model=1 kW=3.9600400000000002 kvar=0.7999668632932473 Phases=2

New Load.load_p1ulv26665 conn=wye bus1=p1ulv26665.1.2 kV=0.2080002494301389 Vminpu=0.8 Vmaxpu=1.2 model=1 kW=3.44003 kvar=0.7003258045487328 Phases=2

New Load.load_p1ulv26711 conn=wye bus1=p1ulv26711.1.2 kV=0.2080002494301389 Vminpu=0.8 Vmaxpu=1.2 model=1 kW=4.14004 kvar=1.3592956687066866 Phases=2

New Load.load_p1ulv26724 conn=wye bus1=p1ulv26724.1.2 kV=0.2080002494301389 Vminpu=0.8 Vmaxpu=1.2 model=1 kW=2.93003 kvar=0.5903528595437461 Phases=2

New Load.load_p1ulv26727 conn=wye bus1=p1ulv26727.1.2 kV=0.2080002494301389 Vminpu=0.8 Vmaxpu=1.2 model=1 kW=10.9401 kvar=2.22148205320207 Phases=2

New Load.load_p1ulv26729 conn=wye bus1=p1ulv26729.1.2 kV=0.2080002494301389 Vminpu=0.8 Vmaxpu=1.2 model=1 kW=3.34003 kvar=0.679967673818805 Phases=2

New Load.load_p1ulv26795 conn=wye bus1=p1ulv26795.1.2 kV=0.2080002494301389 Vminpu=0.8 Vmaxpu=1.2 model=1 kW=19.180200000000003 kvar=3.8947057226923296 Phases=2

New Load.load_p1ulv26798 conn=wye bus1=p1ulv26798.1.2 kV=0.2080002494301389 Vminpu=0.8 Vmaxpu=1.2 model=1 kW=3.7100400000000002 kvar=0.7494644148777485 Phases=2

New Load.load_p1ulv26865 conn=wye bus1=p1ulv26865.1.2 kV=0.2080002494301389 Vminpu=0.8 Vmaxpu=1.2 model=1 kW=3.3000300000000005 kvar=0.6700996718520332 Phases=2

New Load.load_p1ulv26878 conn=wye bus1=p1ulv26878.1.2 kV=0.2080002494301389 Vminpu=0.8 Vmaxpu=1.2 model=1 kW=3.78004 kvar=0.7695454848435601 Phases=2

New Load.load_p1ulv26880 conn=wye bus1=p1ulv26880.1.2 kV=0.2080002494301389 Vminpu=0.8 Vmaxpu=1.2 model=1 kW=14.0601 kvar=2.8476599050421227 Phases=2

New Load.load_p1ulv26883 conn=wye bus1=p1ulv26883.1.2 kV=0.2080002494301389 Vminpu=0.8 Vmaxpu=1.2 model=1 kW=3.37003 kvar=0.6807790649347335 Phases=2

New Load.load_p1ulv26885 conn=wye bus1=p1ulv26885.1.2 kV=0.2080002494301389 Vminpu=0.8 Vmaxpu=1.2 model=1 kW=3.2600300000000004 kvar=0.6602696083409414 Phases=2

New Load.load_p1ulv26953 conn=wye bus1=p1ulv26953.1.2 kV=0.2080002494301389 Vminpu=0.8 Vmaxpu=1.2 model=1 kW=1.68002 kvar=0.34026255813748596 Phases=2

New Load.load_p1ulv26957 conn=wye bus1=p1ulv26957.1.2.3 kV=0.48 Vminpu=0.8 Vmaxpu=1.2 model=1 kW=28.300299999999996 kvar=5.746621013540511 Phases=3

New Load.load_p1ulv26960 conn=wye bus1=p1ulv26579.1.2 kV=0.2080002494301389 Vminpu=0.8 Vmaxpu=1.2 model=1 kW=2.33002 kvar=0.469460711936096 Phases=2

New Load.load_p1ulv27003 conn=wye bus1=p1ulv27003.1.2 kV=0.2080002494301389 Vminpu=0.8 Vmaxpu=1.2 model=1 kW=3.56004 kvar=0.7191629458284491 Phases=2

New Load.load_p1ulv27014 conn=wye bus1=p1ulv27014.1.2 kV=0.2080002494301389 Vminpu=0.8 Vmaxpu=1.2 model=1 kW=3.16003 kvar=0.6400161257551694 Phases=2

New Load.load_p1ulv27016 conn=wye bus1=p1ulv27016.1.2 kV=0.2080002494301389 Vminpu=0.8 Vmaxpu=1.2 model=1 kW=16.6502 kvar=3.3809673112882983 Phases=2

New Load.load_p1ulv27019 conn=wye bus1=p1ulv27019.1.2 kV=0.2080002494301389 Vminpu=0.8 Vmaxpu=1.2 model=1 kW=3.33003 kvar=0.6796683639857601 Phases=2

New Load.load_p1ulv27093 conn=wye bus1=p1ulv27093.1.2 kV=0.2080002494301389 Vminpu=0.8 Vmaxpu=1.2 model=1 kW=5.36005 kvar=1.091205986189491 Phases=2

New Load.load_p1ulv27094 conn=wye bus1=p1ulv27094.1.2 kV=0.2080002494301389 Vminpu=0.8 Vmaxpu=1.2 model=1 kW=3.60004 kvar=0.7291334744808246 Phases=2

New Load.load_p1ulv27096 conn=wye bus1=p1ulv27096.1.2 kV=0.2080002494301389 Vminpu=0.8 Vmaxpu=1.2 model=1 kW=2.5500300000000005 kvar=0.5204681994500374 Phases=2

New Load.load_p1ulv27099 conn=wye bus1=p1ulv27099.1.2 kV=0.2080002494301389 Vminpu=0.8 Vmaxpu=1.2 model=1 kW=3.63004 kvar=0.7409012375272501 Phases=2

New Load.load_p1ulv27167 conn=wye bus1=p1ulv27167.1.2 kV=0.2080002494301389 Vminpu=0.8 Vmaxpu=1.2 model=1 kW=4.2400400000000005 kvar=0.8609768434346036 Phases=2

New Load.load_p1ulv27174 conn=wye bus1=p1ulv27174.1.2 kV=0.2080002494301389 Vminpu=0.8 Vmaxpu=1.2 model=1 kW=4.08004 kvar=0.8306198770333432 Phases=2

New Load.load_p1ulv27177 conn=wye bus1=p1ulv27177.1.2 kV=0.2080002494301389 Vminpu=0.8 Vmaxpu=1.2 model=1 kW=3.54004 kvar=0.7206859710917335 Phases=2

New Load.load_p1ulv27218 conn=wye bus1=p1ulv27218.1.2.3 kV=0.48 Vminpu=0.8 Vmaxpu=1.2 model=1 kW=93.3709 kvar=18.959769896191553 Phases=3

New Load.load_p1ulv27232 conn=wye bus1=p1ulv27232.1.2 kV=0.2080002494301389 Vminpu=0.8 Vmaxpu=1.2 model=1 kW=3.2800300000000004 kvar=0.6694632252334703 Phases=2

New Load.load_p1ulv27233 conn=wye bus1=p1ulv27233.1.2 kV=0.2080002494301389 Vminpu=0.8 Vmaxpu=1.2 model=1 kW=3.09003 kvar=0.6306836979747686 Phases=2

New Load.load_p1ulv27271 conn=wye bus1=p1ulv27271.1.2 kV=0.2080002494301389 Vminpu=0.8 Vmaxpu=1.2 model=1 kW=3.56004 kvar=0.7191629458284491 Phases=2

New Load.load_p1ulv27274 conn=wye bus1=p1ulv27274.1.2 kV=0.2080002494301389 Vminpu=0.8 Vmaxpu=1.2 model=1 kW=3.63004 kvar=0.7409012375272501 Phases=2

New Load.load_p1ulv27277 conn=wye bus1=p1ulv27277.1.2 kV=0.2080002494301389 Vminpu=0.8 Vmaxpu=1.2 model=1 kW=2.5100300000000004 kvar=0.5096833299511698 Phases=2

New Load.load_p1umv41 conn=wye bus1=p1umv41.1.2.3 kV=12.47 Vminpu=0.8 Vmaxpu=1.2 model=1 kW=1156.53 kvar=234.843432783045 Phases=3

New Load.load_p1ulv27333 conn=wye bus1=p1ulv27333.1.2 kV=0.2080002494301389 Vminpu=0.8 Vmaxpu=1.2 model=1 kW=4.02004 kvar=0.8205013197951115 Phases=2

New Load.load_p1ulv27341 conn=wye bus1=p1ulv27341.1.2 kV=0.2080002494301389 Vminpu=0.8 Vmaxpu=1.2 model=1 kW=3.53004 kvar=0.7204909600226704 Phases=2

New Load.load_p1ulv27403 conn=wye bus1=p1ulv27403.1.2 kV=0.2080002494301389 Vminpu=0.8 Vmaxpu=1.2 model=1 kW=2.97003 kvar=0.5999751474699353 Phases=2

New Load.load_p1ulv27677 conn=wye bus1=p1ulv27677.1.2 kV=0.2080002494301389 Vminpu=0.8 Vmaxpu=1.2 model=1 kW=3.88004 kvar=0.7899036155734878 Phases=2

New Load.load_p1ulv27680 conn=wye bus1=p1ulv27680.1.2 kV=0.2080002494301389 Vminpu=0.8 Vmaxpu=1.2 model=1 kW=3.39003 kvar=0.6901467391837689 Phases=2

New Load.load_p1ulv27723 conn=wye bus1=p1ulv27723.1.2 kV=0.2080002494301389 Vminpu=0.8 Vmaxpu=1.2 model=1 kW=1.38001 kvar=0.28022298226153225 Phases=2

New Load.load_p1ulv27742 conn=wye bus1=p1ulv27742.1.2 kV=0.2080002494301389 Vminpu=0.8 Vmaxpu=1.2 model=1 kW=3.46003 kvar=0.7007765735124853 Phases=2

New Load.load_p1ulv27745 conn=wye bus1=p1ulv27745.1.2 kV=0.2080002494301389 Vminpu=0.8 Vmaxpu=1.2 model=1 kW=2.83003 kvar=0.5702045040817287 Phases=2

New Load.load_p1ulv27789 conn=wye bus1=p1ulv27789.1.2 kV=0.2080002494301389 Vminpu=0.8 Vmaxpu=1.2 model=1 kW=12.6901 kvar=2.5768347093115778 Phases=2

New Load.load_p1ulv27805 conn=wye bus1=p1ulv27805.1.2 kV=0.2080002494301389 Vminpu=0.8 Vmaxpu=1.2 model=1 kW=3.6900400000000007 kvar=0.7492945800859013 Phases=2

New Load.load_p1ulv27809 conn=wye bus1=p1ulv27809.1.2 kV=0.2080002494301389 Vminpu=0.8 Vmaxpu=1.2 model=1 kW=2.79003 kvar=0.569452865461029 Phases=2

New Load.load_p1ulv27812 conn=wye bus1=p1ulv27812.1.2 kV=0.2080002494301389 Vminpu=0.8 Vmaxpu=1.2 model=1 kW=2.89003 kvar=0.5898631429656088 Phases=2

New Load.load_p1ulv27878 conn=wye bus1=p1ulv27878.1.2 kV=0.2080002494301389 Vminpu=0.8 Vmaxpu=1.2 model=1 kW=3.42003 kvar=0.6908795546178332 Phases=2

New Load.load_p1ulv27882 conn=wye bus1=p1ulv27882.1.2 kV=0.2080002494301389 Vminpu=0.8 Vmaxpu=1.2 model=1 kW=6.23006 kvar=1.2585331351018492 Phases=2

New Load.load_p1ulv27885 conn=wye bus1=p1ulv27885.1.2 kV=0.2080002494301389 Vminpu=0.8 Vmaxpu=1.2 model=1 kW=3.11003 kvar=0.6298893844622836 Phases=2

New Load.load_p1ulv27942 conn=wye bus1=p1ulv27942.1.2 kV=0.2080002494301389 Vminpu=0.8 Vmaxpu=1.2 model=1 kW=5.50006 kvar=1.119709405024463 Phases=2

New Load.load_p1ulv27945 conn=wye bus1=p1ulv27945.1.2 kV=0.2080002494301389 Vminpu=0.8 Vmaxpu=1.2 model=1 kW=11.920100000000001 kvar=2.4204795406233943 Phases=2

New Load.load_p1ulv27948 conn=wye bus1=p1ulv27948.1.2 kV=0.2080002494301389 Vminpu=0.8 Vmaxpu=1.2 model=1 kW=3.35003 kvar=0.6802526048837334 Phases=2

New Load.load_p1ulv27951 conn=wye bus1=p1ulv27951.1.2 kV=0.2080002494301389 Vminpu=0.8 Vmaxpu=1.2 model=1 kW=1.41001 kvar=0.2899829315447996 Phases=2

New Load.load_p1ulv28019 conn=wye bus1=p1ulv28019.1.2 kV=0.2080002494301389 Vminpu=0.8 Vmaxpu=1.2 model=1 kW=3.42003 kvar=0.6908795546178332 Phases=2

New Load.load_p1ulv28022 conn=wye bus1=p1ulv28022.1.2 kV=0.2080002494301389 Vminpu=0.8 Vmaxpu=1.2 model=1 kW=3.09003 kvar=0.6306836979747686 Phases=2

New Load.load_p1ulv28078 conn=wye bus1=p1ulv28078.1.2 kV=0.2080002494301389 Vminpu=0.8 Vmaxpu=1.2 model=1 kW=4.08004 kvar=0.8306198770333432 Phases=2

New Load.load_p1ulv28091 conn=wye bus1=p1ulv28091.1.2 kV=0.2080002494301389 Vminpu=0.8 Vmaxpu=1.2 model=1 kW=5.37005 kvar=1.0904351605376348 Phases=2

New Load.load_p1ulv28094 conn=wye bus1=p1ulv28094.1.2 kV=0.2080002494301389 Vminpu=0.8 Vmaxpu=1.2 model=1 kW=3.34003 kvar=0.679967673818805 Phases=2

New Load.load_p1ulv28145 conn=wye bus1=p1ulv28145.1.2 kV=0.2080002494301389 Vminpu=0.8 Vmaxpu=1.2 model=1 kW=7.70008 kvar=1.559534361890509 Phases=2

New Load.load_p1ulv28160 conn=wye bus1=p1ulv28160.1.2 kV=0.2080002494301389 Vminpu=0.8 Vmaxpu=1.2 model=1 kW=6.72007 kvar=1.3715849355020187 Phases=2

New Load.load_p1ulv28162 conn=wye bus1=p1ulv28162.1.2 kV=0.2080002494301389 Vminpu=0.8 Vmaxpu=1.2 model=1 kW=3.39003 kvar=0.6901467391837689 Phases=2

New Load.load_p1ulv28167 conn=wye bus1=p1ulv28167.1.2 kV=0.2080002494301389 Vminpu=0.8 Vmaxpu=1.2 model=1 kW=2.98003 kvar=0.6097828960881785 Phases=2

New Load.load_p1ulv28226 conn=wye bus1=p1ulv28226.1.2 kV=0.2080002494301389 Vminpu=0.8 Vmaxpu=1.2 model=1 kW=3.11003 kvar=0.6298893844622836 Phases=2

New Load.load_p1ulv28227 conn=wye bus1=p1ulv28227.1.2 kV=0.2080002494301389 Vminpu=0.8 Vmaxpu=1.2 model=1 kW=3.70004 kvar=0.7493869570665965 Phases=2

New Load.load_p1ulv28232 conn=wye bus1=p1ulv28232.1.2 kV=0.2080002494301389 Vminpu=0.8 Vmaxpu=1.2 model=1 kW=13.9701 kvar=2.836749794923104 Phases=2

New Load.load_p1ulv28235 conn=wye bus1=p1ulv28235.1.2 kV=0.2080002494301389 Vminpu=0.8 Vmaxpu=1.2 model=1 kW=3.52004 kvar=0.7202814017128122 Phases=2

New Load.load_p1ulv28303 conn=wye bus1=p1ulv28303.1.2 kV=0.2080002494301389 Vminpu=0.8 Vmaxpu=1.2 model=1 kW=3.22003 kvar=0.6504775958854341 Phases=2

New Load.load_p1ulv28319 conn=wye bus1=p1ulv28319.1.2 kV=0.2080002494301389 Vminpu=0.8 Vmaxpu=1.2 model=1 kW=4.57005 kvar=0.9303767534230621 Phases=2

New Load.load_p1ulv28321 conn=wye bus1=p1ulv28321.1.2 kV=0.2080002494301389 Vminpu=0.8 Vmaxpu=1.2 model=1 kW=2.88003 kvar=0.5802786818127376 Phases=2

New Load.load_p1ulv28324 conn=wye bus1=p1ulv28324.1.2 kV=0.2080002494301389 Vminpu=0.8 Vmaxpu=1.2 model=1 kW=3.52004 kvar=0.7092301716051945 Phases=2

New Load.load_p1ulv28327 conn=wye bus1=p1ulv28327.1.2 kV=0.2080002494301389 Vminpu=0.8 Vmaxpu=1.2 model=1 kW=2.30002 kvar=0.46944046466083733 Phases=2

New Load.load_p1ulv28388 conn=wye bus1=p1ulv28388.1.2 kV=0.2080002494301389 Vminpu=0.8 Vmaxpu=1.2 model=1 kW=16.0102 kvar=3.251009768482536 Phases=2

New Load.load_p1ulv28390 conn=wye bus1=p1ulv28390.1.2 kV=0.2080002494301389 Vminpu=0.8 Vmaxpu=1.2 model=1 kW=3.48003 kvar=0.71028378024263 Phases=2

New Load.load_p1ulv28393 conn=wye bus1=p1ulv28393.1.2 kV=0.2080002494301389 Vminpu=0.8 Vmaxpu=1.2 model=1 kW=3.33003 kvar=0.6796683639857601 Phases=2

New Load.load_p1ulv28396 conn=wye bus1=p1ulv28396.1.2 kV=0.2080002494301389 Vminpu=0.8 Vmaxpu=1.2 model=1 kW=2.92003 kvar=0.5898746577868357 Phases=2

New Load.load_p1ulv28439 conn=wye bus1=p1ulv28439.1.2 kV=0.2080002494301389 Vminpu=0.8 Vmaxpu=1.2 model=1 kW=3.78004 kvar=0.7695454848435601 Phases=2

New Load.load_p1ulv28452 conn=wye bus1=p1ulv28452.1.2 kV=0.2080002494301389 Vminpu=0.8 Vmaxpu=1.2 model=1 kW=3.68004 kvar=0.7491873541136322 Phases=2

New Load.load_p1ulv28459 conn=wye bus1=p1ulv28459.1.2 kV=0.2080002494301389 Vminpu=0.8 Vmaxpu=1.2 model=1 kW=3.92004 kvar=0.8000910422905317 Phases=2

New Load.load_p1ulv28477 conn=wye bus1=p1ulv28477.1.2 kV=0.2080002494301389 Vminpu=0.8 Vmaxpu=1.2 model=1 kW=3.53004 kvar=0.7204909600226704 Phases=2

New Load.load_p1ulv28540 conn=wye bus1=p1ulv28540.1.2 kV=0.2080002494301389 Vminpu=0.8 Vmaxpu=1.2 model=1 kW=3.97004 kvar=0.8102961810428216 Phases=2

New Load.load_p1ulv28542 conn=wye bus1=p1ulv28542.1.2 kV=0.2080002494301389 Vminpu=0.8 Vmaxpu=1.2 model=1 kW=4.10004 kvar=0.8304008874096844 Phases=2

New Load.load_p1ulv28545 conn=wye bus1=p1ulv28545.1.2 kV=0.2080002494301389 Vminpu=0.8 Vmaxpu=1.2 model=1 kW=2.95003 kvar=0.6005709639720869 Phases=2

New Load.load_p1ulv28547 conn=wye bus1=p1ulv28547.1.2 kV=0.2080002494301389 Vminpu=0.8 Vmaxpu=1.2 model=1 kW=2.95003 kvar=0.6005709639720869 Phases=2

New Load.load_p1ulv28612 conn=wye bus1=p1ulv28612.1.2 kV=0.2080002494301389 Vminpu=0.8 Vmaxpu=1.2 model=1 kW=3.41003 kvar=0.6906498322195993 Phases=2

New Load.load_p1ulv28664 conn=wye bus1=p1ulv28664.1.2 kV=0.2080002494301389 Vminpu=0.8 Vmaxpu=1.2 model=1 kW=3.25003 kvar=0.659946738820333 Phases=2

New Load.load_p1ulv28667 conn=wye bus1=p1ulv28667.1.2 kV=0.2080002494301389 Vminpu=0.8 Vmaxpu=1.2 model=1 kW=3.79004 kvar=0.7696004461493017 Phases=2

New Load.load_p1ulv28668 conn=wye bus1=p1ulv28668.1.2 kV=0.2080002494301389 Vminpu=0.8 Vmaxpu=1.2 model=1 kW=4.80005 kvar=0.9696571100672596 Phases=2

New Load.load_p1ulv28671 conn=wye bus1=p1ulv28671.1.2 kV=0.2080002494301389 Vminpu=0.8 Vmaxpu=1.2 model=1 kW=3.47003 kvar=0.6991539790386396 Phases=2

New Load.load_p1ulv28679 conn=wye bus1=p1ulv28679.1.2 kV=0.2080002494301389 Vminpu=0.8 Vmaxpu=1.2 model=1 kW=4.17004 kvar=0.8489421946902781 Phases=2

New Load.load_p1ulv28682 conn=wye bus1=p1ulv28682.1.2 kV=0.2080002494301389 Vminpu=0.8 Vmaxpu=1.2 model=1 kW=3.46003 kvar=0.7007765735124853 Phases=2

New Load.load_p1ulv28685 conn=wye bus1=p1ulv28685.1.2 kV=0.2080002494301389 Vminpu=0.8 Vmaxpu=1.2 model=1 kW=2.8000300000000005 kvar=0.5700337678771953 Phases=2

New Load.load_p1ulv28746 conn=wye bus1=p1ulv28746.1.2 kV=0.2080002494301389 Vminpu=0.8 Vmaxpu=1.2 model=1 kW=3.3200300000000005 kvar=0.6706785752516337 Phases=2

New Load.load_p1ulv28749 conn=wye bus1=p1ulv28749.1.2 kV=0.2080002494301389 Vminpu=0.8 Vmaxpu=1.2 model=1 kW=7.29007 kvar=1.4803118501281356 Phases=2

New Load.load_p1ulv28795 conn=wye bus1=p1ulv28795.1.2 kV=0.2080002494301389 Vminpu=0.8 Vmaxpu=1.2 model=1 kW=3.86004 kvar=0.7797658839270477 Phases=2

New Load.load_p1ulv28806 conn=wye bus1=p1ulv28806.1.2 kV=0.2080002494301389 Vminpu=0.8 Vmaxpu=1.2 model=1 kW=2.98003 kvar=0.6097828960881785 Phases=2

New Load.load_p1ulv28808 conn=wye bus1=p1ulv28808.1.2 kV=0.2080002494301389 Vminpu=0.8 Vmaxpu=1.2 model=1 kW=1.78002 kvar=0.35958147291422454 Phases=2

New Load.load_p1ulv28811 conn=wye bus1=p1ulv28811.1.2 kV=0.2080002494301389 Vminpu=0.8 Vmaxpu=1.2 model=1 kW=3.41003 kvar=0.6906498322195993 Phases=2

New Load.load_p1ulv28854 conn=wye bus1=p1ulv28854.1.2.3 kV=0.48 Vminpu=0.8 Vmaxpu=1.2 model=1 kW=24.9702 kvar=5.070415367763214 Phases=3

New Load.load_p1ulv28868 conn=wye bus1=p1ulv28868.1.2 kV=0.2080002494301389 Vminpu=0.8 Vmaxpu=1.2 model=1 kW=5.340050000000001 kvar=1.078742398644737 Phases=2

New Load.load_p1ulv28870 conn=wye bus1=p1ulv28870.1.2 kV=0.2080002494301389 Vminpu=0.8 Vmaxpu=1.2 model=1 kW=3.74004 kvar=0.7594475131176014 Phases=2

New Load.load_p1ulv28913 conn=wye bus1=p1ulv28913.1.2 kV=0.2080002494301389 Vminpu=0.8 Vmaxpu=1.2 model=1 kW=4.12004 kvar=0.8409115972996914 Phases=2

New Load.load_p1ulv28914 conn=wye bus1=p1ulv28914.1.2 kV=0.2080002494301389 Vminpu=0.8 Vmaxpu=1.2 model=1 kW=3.19003 kvar=0.6494304777239135 Phases=2

New Load.load_p1ulv28917 conn=wye bus1=p1ulv28917.1.2 kV=0.2080002494301389 Vminpu=0.8 Vmaxpu=1.2 model=1 kW=3.66004 kvar=0.7393639251946486 Phases=2

New Load.load_p1ulv28920 conn=wye bus1=p1ulv28920.1.2 kV=0.2080002494301389 Vminpu=0.8 Vmaxpu=1.2 model=1 kW=4.48004 kvar=0.9097109219867646 Phases=2

New Load.load_p1ulv28977 conn=wye bus1=p1ulv28977.1.2 kV=0.2080002494301389 Vminpu=0.8 Vmaxpu=1.2 model=1 kW=3.46003 kvar=0.7007765735124853 Phases=2

New Load.load_p1ulv28979 conn=wye bus1=p1ulv28979.1.2 kV=0.2080002494301389 Vminpu=0.8 Vmaxpu=1.2 model=1 kW=3.3000300000000005 kvar=0.6700996718520332 Phases=2

New Load.load_p1ulv28985 conn=wye bus1=p1ulv28985.1.2 kV=0.2080002494301389 Vminpu=0.8 Vmaxpu=1.2 model=1 kW=4.97005 kvar=1.009211696284033 Phases=2

New Load.load_p1ulv29041 conn=wye bus1=p1ulv29041.1.2 kV=0.2080002494301389 Vminpu=0.8 Vmaxpu=1.2 model=1 kW=4.25004 kvar=0.8607811112883423 Phases=2

New Load.load_p1ulv29043 conn=wye bus1=p1ulv29043.1.2 kV=0.2080002494301389 Vminpu=0.8 Vmaxpu=1.2 model=1 kW=3.70004 kvar=0.7493869570665965 Phases=2

New Load.load_p1ulv29046 conn=wye bus1=p1ulv29046.1.2 kV=0.2080002494301389 Vminpu=0.8 Vmaxpu=1.2 model=1 kW=2.75003 kvar=0.5598547025122315 Phases=2

New Load.load_p1ulv29305 conn=wye bus1=p1ulv29305.1.2.3 kV=0.48 Vminpu=0.8 Vmaxpu=1.2 model=1 kW=87.5009 kvar=17.767815558269948 Phases=3

New Load.load_p1ulv29324 conn=wye bus1=p1ulv29324.1.2 kV=0.2080002494301389 Vminpu=0.8 Vmaxpu=1.2 model=1 kW=3.92004 kvar=0.8000910422905317 Phases=2

New Load.load_p1ulv29327 conn=wye bus1=p1ulv29327.1.2 kV=0.2080002494301389 Vminpu=0.8 Vmaxpu=1.2 model=1 kW=2.95003 kvar=0.6005709639720869 Phases=2

New Load.load_p1ulv29384 conn=wye bus1=p1ulv29384.1.2 kV=0.2080002494301389 Vminpu=0.8 Vmaxpu=1.2 model=1 kW=4.86005 kvar=0.9894153325398525 Phases=2

New Load.load_p1ulv29389 conn=wye bus1=p1ulv29389.1.2 kV=0.2080002494301389 Vminpu=0.8 Vmaxpu=1.2 model=1 kW=3.93004 kvar=0.8000826809384517 Phases=2

New Load.load_p1ulv29392 conn=wye bus1=p1ulv29392.1.2 kV=0.2080002494301389 Vminpu=0.8 Vmaxpu=1.2 model=1 kW=5.50006 kvar=1.119709405024463 Phases=2

New Load.load_p1ulv29457 conn=wye bus1=p1ulv29457.1.2 kV=0.2080002494301389 Vminpu=0.8 Vmaxpu=1.2 model=1 kW=4.55005 kvar=0.9191546616517607 Phases=2

New Load.load_p1ulv29515 conn=wye bus1=p1ulv29515.1.2 kV=0.2080002494301389 Vminpu=0.8 Vmaxpu=1.2 model=1 kW=3.59004 kvar=0.7308650364566972 Phases=2

New Load.load_p1ulv29517 conn=wye bus1=p1ulv29517.1.2 kV=0.2080002494301389 Vminpu=0.8 Vmaxpu=1.2 model=1 kW=3.10003 kvar=0.6294879397252322 Phases=2

New Load.load_p1ulv29519 conn=wye bus1=p1ulv29519.1.2 kV=0.2080002494301389 Vminpu=0.8 Vmaxpu=1.2 model=1 kW=11.4401 kvar=2.3230113835190718 Phases=2

New Load.load_p1ulv29568 conn=wye bus1=p1ulv29568.1.2.3 kV=0.48 Vminpu=0.8 Vmaxpu=1.2 model=1 kW=44.4204 kvar=9.019946928826725 Phases=3

New Load.load_p1ulv29583 conn=wye bus1=p1ulv29583.1.2 kV=0.2080002494301389 Vminpu=0.8 Vmaxpu=1.2 model=1 kW=2.97003 kvar=0.5999751474699353 Phases=2

New Load.load_p1ulv29585 conn=wye bus1=p1ulv29585.1.2 kV=0.2080002494301389 Vminpu=0.8 Vmaxpu=1.2 model=1 kW=3.84004 kvar=0.7797533791810017 Phases=2

New Load.load_p1ulv29587 conn=wye bus1=p1ulv29587.1.2 kV=0.2080002494301389 Vminpu=0.8 Vmaxpu=1.2 model=1 kW=3.54004 kvar=0.7206859710917335 Phases=2

New Load.load_p1ulv29590 conn=wye bus1=p1ulv29590.1.2 kV=0.2080002494301389 Vminpu=0.8 Vmaxpu=1.2 model=1 kW=3.3200300000000005 kvar=0.6706785752516337 Phases=2

New Load.load_p1ulv29657 conn=wye bus1=p1ulv29657.1.2 kV=0.2080002494301389 Vminpu=0.8 Vmaxpu=1.2 model=1 kW=3.0700300000000005 kvar=0.620176126836135 Phases=2

New Load.load_p1ulv29658 conn=wye bus1=p1ulv29658.1.2 kV=0.2080002494301389 Vminpu=0.8 Vmaxpu=1.2 model=1 kW=4.630050000000001 kvar=0.9401717516684716 Phases=2

New Load.load_p1ulv29664 conn=wye bus1=p1ulv29664.1.2 kV=0.2080002494301389 Vminpu=0.8 Vmaxpu=1.2 model=1 kW=3.97004 kvar=0.8102961810428216 Phases=2

New Load.load_p1ulv29735 conn=wye bus1=p1ulv29735.1.2 kV=0.2080002494301389 Vminpu=0.8 Vmaxpu=1.2 model=1 kW=4.36004 kvar=0.8898962633106831 Phases=2

New Load.load_p1ulv29736 conn=wye bus1=p1ulv29736.1.2 kV=0.2080002494301389 Vminpu=0.8 Vmaxpu=1.2 model=1 kW=3.53004 kvar=0.7204909600226704 Phases=2

New Load.load_p1ulv29739 conn=wye bus1=p1ulv29739.1.2 kV=0.2080002494301389 Vminpu=0.8 Vmaxpu=1.2 model=1 kW=3.57004 kvar=0.7305125553603958 Phases=2

New Load.load_p1ulv29742 conn=wye bus1=p1ulv29742.1.2 kV=0.2080002494301389 Vminpu=0.8 Vmaxpu=1.2 model=1 kW=3.02003 kvar=0.6100756371530351 Phases=2

New Load.load_p1ulv29802 conn=wye bus1=p1ulv29802.1.2 kV=0.2080002494301389 Vminpu=0.8 Vmaxpu=1.2 model=1 kW=3.86004 kvar=0.7797658839270477 Phases=2

New Load.load_p1ulv29808 conn=wye bus1=p1ulv29808.1.2 kV=0.2080002494301389 Vminpu=0.8 Vmaxpu=1.2 model=1 kW=3.18003 kvar=0.6507075106785133 Phases=2

New Load.load_p1ulv29809 conn=wye bus1=p1ulv29809.1.2 kV=0.2080002494301389 Vminpu=0.8 Vmaxpu=1.2 model=1 kW=3.16003 kvar=0.6400161257551694 Phases=2

New Load.load_p1ulv29863 conn=wye bus1=p1ulv29863.1.2 kV=0.2080002494301389 Vminpu=0.8 Vmaxpu=1.2 model=1 kW=3.37003 kvar=0.6807790649347335 Phases=2

New Load.load_p1ulv29865 conn=wye bus1=p1ulv29865.1.2 kV=0.2080002494301389 Vminpu=0.8 Vmaxpu=1.2 model=1 kW=4.33004 kvar=0.879252122891664 Phases=2

New Load.load_p1ulv29870 conn=wye bus1=p1ulv29870.1.2 kV=0.2080002494301389 Vminpu=0.8 Vmaxpu=1.2 model=1 kW=3.0100300000000004 kvar=0.6096359018765115 Phases=2

New Load.load_p1ulv29897 conn=wye bus1=p1ulv29897.1.2 kV=0.2080002494301389 Vminpu=0.8 Vmaxpu=1.2 model=1 kW=3.3200300000000005 kvar=0.6706785752516337 Phases=2

New Load.load_p1ulv29899 conn=wye bus1=p1ulv29899.1.2 kV=0.2080002494301389 Vminpu=0.8 Vmaxpu=1.2 model=1 kW=3.59004 kvar=0.7308650364566972 Phases=2

New Load.load_p1ulv29902 conn=wye bus1=p1ulv29902.1.2 kV=0.2080002494301389 Vminpu=0.8 Vmaxpu=1.2 model=1 kW=3.66004 kvar=0.7393639251946486 Phases=2

New Load.load_p1ulv29956 conn=wye bus1=p1ulv29956.1.2.3 kV=0.48 Vminpu=0.8 Vmaxpu=1.2 model=1 kW=24.6502 kvar=5.005436596360333 Phases=3

New Load.load_p1ulv29974 conn=wye bus1=p1ulv29974.1.2 kV=0.2080002494301389 Vminpu=0.8 Vmaxpu=1.2 model=1 kW=3.7500400000000003 kvar=0.7595136983594827 Phases=2

New Load.load_p1ulv29975 conn=wye bus1=p1ulv29975.1.2 kV=0.2080002494301389 Vminpu=0.8 Vmaxpu=1.2 model=1 kW=4.200040000000001 kvar=0.8506543699954566 Phases=2

New Load.load_p1ulv29977 conn=wye bus1=p1ulv29977.1.2 kV=0.2080002494301389 Vminpu=0.8 Vmaxpu=1.2 model=1 kW=17.0902 kvar=3.4703131219672607 Phases=2

New Load.load_p1ulv29980 conn=wye bus1=p1ulv29980.1.2 kV=0.2080002494301389 Vminpu=0.8 Vmaxpu=1.2 model=1 kW=3.02003 kvar=0.6100756371530351 Phases=2

New Load.load_p1ulv30037 conn=wye bus1=p1ulv30037.1.2 kV=0.2080002494301389 Vminpu=0.8 Vmaxpu=1.2 model=1 kW=3.49003 kvar=0.7105048699136965 Phases=2

New Load.load_p1ulv30038 conn=wye bus1=p1ulv30038.1.2 kV=0.2080002494301389 Vminpu=0.8 Vmaxpu=1.2 model=1 kW=3.0300300000000004 kvar=0.6200140497357622 Phases=2

New Load.load_p1ulv30042 conn=wye bus1=p1ulv30042.1.2 kV=0.2080002494301389 Vminpu=0.8 Vmaxpu=1.2 model=1 kW=9.50009 kvar=1.929075551302498 Phases=2

New Load.load_p1ulv30045 conn=wye bus1=p1ulv30045.1.2 kV=0.2080002494301389 Vminpu=0.8 Vmaxpu=1.2 model=1 kW=3.88004 kvar=0.7899036155734878 Phases=2

New Load.load_p1ulv30089 conn=wye bus1=p1ulv30089.1.2.3 kV=0.48 Vminpu=0.8 Vmaxpu=1.2 model=1 kW=134.701 kvar=27.352204646061008 Phases=3

New Load.load_p1ulv30100 conn=wye bus1=p1ulv30100.1.2 kV=0.2080002494301389 Vminpu=0.8 Vmaxpu=1.2 model=1 kW=4.50005 kvar=0.9090541719686612 Phases=2

New Load.load_p1ulv30108 conn=wye bus1=p1ulv30108.1.2 kV=0.2080002494301389 Vminpu=0.8 Vmaxpu=1.2 model=1 kW=3.7300400000000002 kvar=0.7593664194785962 Phases=2

New Load.load_p1ulv30116 conn=wye bus1=p1ulv30116.1.2 kV=0.2080002494301389 Vminpu=0.8 Vmaxpu=1.2 model=1 kW=3.2600300000000004 kvar=0.6602696083409414 Phases=2

New Load.load_p1ulv30119 conn=wye bus1=p1ulv30119.1.2 kV=0.2080002494301389 Vminpu=0.8 Vmaxpu=1.2 model=1 kW=3.79004 kvar=0.7696004461493017 Phases=2

New Load.load_p1ulv30187 conn=wye bus1=p1ulv30187.1.2 kV=0.2080002494301389 Vminpu=0.8 Vmaxpu=1.2 model=1 kW=3.36003 kvar=0.6805230909267135 Phases=2

New Load.load_p1ulv30189 conn=wye bus1=p1ulv30189.1.2 kV=0.2080002494301389 Vminpu=0.8 Vmaxpu=1.2 model=1 kW=5.29005 kvar=1.0686419089616372 Phases=2

New Load.load_p1ulv30250 conn=wye bus1=p1ulv30250.1.2 kV=0.2080002494301389 Vminpu=0.8 Vmaxpu=1.2 model=1 kW=2.92003 kvar=0.5898746577868357 Phases=2

New Load.load_p1ulv30251 conn=wye bus1=p1ulv30251.1.2 kV=0.2080002494301389 Vminpu=0.8 Vmaxpu=1.2 model=1 kW=3.77004 kvar=0.7694756260336619 Phases=2

New Load.load_p1ulv30253 conn=wye bus1=p1ulv30253.1.2 kV=0.2080002494301389 Vminpu=0.8 Vmaxpu=1.2 model=1 kW=3.6900400000000007 kvar=0.7492945800859013 Phases=2

New Load.load_p1ulv30256 conn=wye bus1=p1ulv30256.1.2 kV=0.2080002494301389 Vminpu=0.8 Vmaxpu=1.2 model=1 kW=3.2600300000000004 kvar=0.6602696083409414 Phases=2

New Load.load_p1ulv30306 conn=wye bus1=p1ulv30306.1.2 kV=0.2080002494301389 Vminpu=0.8 Vmaxpu=1.2 model=1 kW=3.50004 kvar=0.7107134345654403 Phases=2

New Load.load_p1ulv30321 conn=wye bus1=p1ulv30321.1.2 kV=0.2080002494301389 Vminpu=0.8 Vmaxpu=1.2 model=1 kW=3.53004 kvar=0.7204909600226704 Phases=2

New Load.load_p1ulv30323 conn=wye bus1=p1ulv30323.1.2 kV=0.2080002494301389 Vminpu=0.8 Vmaxpu=1.2 model=1 kW=15.480200000000002 kvar=3.143388678346513 Phases=2

New Load.load_p1ulv30339 conn=wye bus1=p1ulv30339.1.2 kV=0.2080002494301389 Vminpu=0.8 Vmaxpu=1.2 model=1 kW=1.41001 kvar=0.2899829315447996 Phases=2

New Load.load_p1ulv30344 conn=wye bus1=p1ulv30344.1.2 kV=0.2080002494301389 Vminpu=0.8 Vmaxpu=1.2 model=1 kW=3.90004 kvar=0.7898939222381405 Phases=2

New Load.load_p1ulv30405 conn=wye bus1=p1ulv30405.1.2 kV=0.2080002494301389 Vminpu=0.8 Vmaxpu=1.2 model=1 kW=3.41003 kvar=0.6906498322195993 Phases=2

New Load.load_p1ulv30409 conn=wye bus1=p1ulv30409.1.2 kV=0.2080002494301389 Vminpu=0.8 Vmaxpu=1.2 model=1 kW=3.85004 kvar=0.7797671809452545 Phases=2

New Load.load_p1ulv30412 conn=wye bus1=p1ulv30412.1.2 kV=0.2080002494301389 Vminpu=0.8 Vmaxpu=1.2 model=1 kW=3.2800300000000004 kvar=0.6694632252334703 Phases=2

New Load.load_p1ulv30472 conn=wye bus1=p1ulv30472.1.2 kV=0.2080002494301389 Vminpu=0.8 Vmaxpu=1.2 model=1 kW=3.10003 kvar=0.6294879397252322 Phases=2

New Load.load_p1ulv30474 conn=wye bus1=p1ulv30474.1.2 kV=0.2080002494301389 Vminpu=0.8 Vmaxpu=1.2 model=1 kW=2.84003 kvar=0.5796580042133189 Phases=2

New Load.load_p1ulv30476 conn=wye bus1=p1ulv30476.1.2 kV=0.2080002494301389 Vminpu=0.8 Vmaxpu=1.2 model=1 kW=3.06003 kvar=0.6197626431693976 Phases=2

New Load.load_p1ulv30585 conn=wye bus1=p1ulv30585.1.2 kV=0.2080002494301389 Vminpu=0.8 Vmaxpu=1.2 model=1 kW=3.47003 kvar=0.6991539790386396 Phases=2

New Load.load_p1ulv30587 conn=wye bus1=p1ulv30587.1.2 kV=0.2080002494301389 Vminpu=0.8 Vmaxpu=1.2 model=1 kW=3.46003 kvar=0.7007765735124853 Phases=2

New Load.load_p1ulv30631 conn=wye bus1=p1ulv30631.1.2 kV=0.2080002494301389 Vminpu=0.8 Vmaxpu=1.2 model=1 kW=3.91004 kvar=0.7898663736101474 Phases=2

New Load.load_p1ulv30648 conn=wye bus1=p1ulv30648.1.2 kV=0.2080002494301389 Vminpu=0.8 Vmaxpu=1.2 model=1 kW=2.41002 kvar=0.489375433301163 Phases=2

New Load.load_p1ulv30651 conn=wye bus1=p1ulv30651.1.2 kV=0.2080002494301389 Vminpu=0.8 Vmaxpu=1.2 model=1 kW=3.84004 kvar=0.7797533791810017 Phases=2

New Load.load_p1ulv30707 conn=wye bus1=p1ulv30707.1.2 kV=0.2080002494301389 Vminpu=0.8 Vmaxpu=1.2 model=1 kW=16.2002 kvar=3.2895909140029964 Phases=2

New Load.load_p1ulv30710 conn=wye bus1=p1ulv30710.1.2 kV=0.2080002494301389 Vminpu=0.8 Vmaxpu=1.2 model=1 kW=3.45003 kvar=0.7005584709471337 Phases=2

New Load.load_p1ulv31192 conn=wye bus1=p1ulv27942.1.2 kV=0.2080002494301389 Vminpu=0.8 Vmaxpu=1.2 model=1 kW=4.40004 kvar=0.8911613351670004 Phases=2

New Load.load_p1ulv31197 conn=wye bus1=p1ulv31197.1.2 kV=0.2080002494301389 Vminpu=0.8 Vmaxpu=1.2 model=1 kW=3.68004 kvar=0.7491873541136322 Phases=2

New Load.load_p1ulv31199 conn=wye bus1=p1ulv31199.1.2 kV=0.2080002494301389 Vminpu=0.8 Vmaxpu=1.2 model=1 kW=4.52005 kvar=0.9201976880580982 Phases=2

New Load.load_p1ulv31260 conn=wye bus1=p1ulv31260.1.2.3 kV=0.48 Vminpu=0.8 Vmaxpu=1.2 model=1 kW=25.690300000000004 kvar=5.216637909285761 Phases=3

New Load.load_p1ulv31266 conn=wye bus1=p1ulv31266.1.2 kV=0.2080002494301389 Vminpu=0.8 Vmaxpu=1.2 model=1 kW=3.89004 kvar=0.789906312212702 Phases=2

New Load.load_p1ulv31324 conn=wye bus1=p1ulv31324.1.2 kV=0.2080002494301389 Vminpu=0.8 Vmaxpu=1.2 model=1 kW=3.66004 kvar=0.7393639251946486 Phases=2

New Load.load_p1ulv31326 conn=wye bus1=p1ulv31326.1.2 kV=0.2080002494301389 Vminpu=0.8 Vmaxpu=1.2 model=1 kW=3.90004 kvar=0.7898939222381405 Phases=2

New Load.load_p1ulv31402 conn=wye bus1=p1ulv31402.1.2 kV=0.2080002494301389 Vminpu=0.8 Vmaxpu=1.2 model=1 kW=3.45003 kvar=0.7005584709471337 Phases=2

New Load.load_p1ulv31404 conn=wye bus1=p1ulv31404.1.2 kV=0.2080002494301389 Vminpu=0.8 Vmaxpu=1.2 model=1 kW=4.33004 kvar=0.879252122891664 Phases=2

New Load.load_p1ulv31407 conn=wye bus1=p1ulv31407.1.2 kV=0.2080002494301389 Vminpu=0.8 Vmaxpu=1.2 model=1 kW=3.68004 kvar=0.7491873541136322 Phases=2

New Load.load_p1ulv31409 conn=wye bus1=p1ulv31409.1.2 kV=0.2080002494301389 Vminpu=0.8 Vmaxpu=1.2 model=1 kW=3.46003 kvar=0.7007765735124853 Phases=2

New Load.load_p1ulv31466 conn=wye bus1=p1ulv31466.1.2 kV=0.2080002494301389 Vminpu=0.8 Vmaxpu=1.2 model=1 kW=4.07004 kvar=0.8307064585474014 Phases=2

New Load.load_p1ulv31470 conn=wye bus1=p1ulv31470.1.2 kV=0.2080002494301389 Vminpu=0.8 Vmaxpu=1.2 model=1 kW=12.5501 kvar=2.5484064968228175 Phases=2

New Load.load_p1ulv31473 conn=wye bus1=p1ulv31473.1.2 kV=0.2080002494301389 Vminpu=0.8 Vmaxpu=1.2 model=1 kW=4.13004 kvar=0.840798942398307 Phases=2

New Load.load_p1ulv31519 conn=wye bus1=p1ulv31519.1.2 kV=0.2080002494301389 Vminpu=0.8 Vmaxpu=1.2 model=1 kW=4.05004 kvar=0.8202741461167985 Phases=2

New Load.load_p1ulv31532 conn=wye bus1=p1ulv31532.1.2 kV=0.2080002494301389 Vminpu=0.8 Vmaxpu=1.2 model=1 kW=3.49003 kvar=0.7105048699136965 Phases=2

New Load.load_p1ulv31537 conn=wye bus1=p1ulv31537.1.2 kV=0.2080002494301389 Vminpu=0.8 Vmaxpu=1.2 model=1 kW=18.9102 kvar=3.839879884321148 Phases=2

New Load.load_p1ulv31539 conn=wye bus1=p1ulv31539.1.2 kV=0.2080002494301389 Vminpu=0.8 Vmaxpu=1.2 model=1 kW=3.49003 kvar=0.7105048699136965 Phases=2

New Load.load_p1ulv31559 conn=wye bus1=p1ulv31559.1.2 kV=0.2080002494301389 Vminpu=0.8 Vmaxpu=1.2 model=1 kW=3.3000300000000005 kvar=0.6700996718520332 Phases=2

New Load.load_p1ulv31560 conn=wye bus1=p1ulv31560.1.2 kV=0.2080002494301389 Vminpu=0.8 Vmaxpu=1.2 model=1 kW=2.83003 kvar=0.580558608517704 Phases=2

New Load.load_p1ulv31563 conn=wye bus1=p1ulv31563.1.2 kV=0.2080002494301389 Vminpu=0.8 Vmaxpu=1.2 model=1 kW=3.70004 kvar=0.7493869570665965 Phases=2

New Load.load_p1ulv31566 conn=wye bus1=p1ulv31566.1.2 kV=0.2080002494301389 Vminpu=0.8 Vmaxpu=1.2 model=1 kW=3.25003 kvar=0.659946738820333 Phases=2

New Load.load_p1ulv31625 conn=wye bus1=p1ulv31625.1.2 kV=0.2080002494301389 Vminpu=0.8 Vmaxpu=1.2 model=1 kW=3.0300300000000004 kvar=0.6105012150057635 Phases=2

New Load.load_p1ulv31627 conn=wye bus1=p1ulv31627.1.2 kV=0.2080002494301389 Vminpu=0.8 Vmaxpu=1.2 model=1 kW=4.97005 kvar=1.009211696284033 Phases=2

New Load.load_p1ulv31629 conn=wye bus1=p1ulv31629.1.2 kV=0.2080002494301389 Vminpu=0.8 Vmaxpu=1.2 model=1 kW=3.55004 kvar=0.7208663675971405 Phases=2

New Load.load_p1ulv31632 conn=wye bus1=p1ulv31632.1.2 kV=0.2080002494301389 Vminpu=0.8 Vmaxpu=1.2 model=1 kW=3.31003 kvar=0.6703963496338274 Phases=2

New Load.load_p1ulv31676 conn=wye bus1=p1ulv31676.1.2 kV=0.2080002494301389 Vminpu=0.8 Vmaxpu=1.2 model=1 kW=4.90005 kvar=1.0001138028631646 Phases=2

New Load.load_p1ulv31685 conn=wye bus1=p1ulv31685.1.2 kV=0.2080002494301389 Vminpu=0.8 Vmaxpu=1.2 model=1 kW=3.12003 kvar=0.6302766165192346 Phases=2

New Load.load_p1ulv31686 conn=wye bus1=p1ulv31686.1.2 kV=0.2080002494301389 Vminpu=0.8 Vmaxpu=1.2 model=1 kW=14.920100000000001 kvar=3.0296555225254074 Phases=2

New Load.load_p1ulv31688 conn=wye bus1=p1ulv31688.1.2 kV=0.2080002494301389 Vminpu=0.8 Vmaxpu=1.2 model=1 kW=2.7600300000000004 kvar=0.5604479951096709 Phases=2

New Load.load_p1ulv31742 conn=wye bus1=p1ulv31742.1.2 kV=0.2080002494301389 Vminpu=0.8 Vmaxpu=1.2 model=1 kW=3.44003 kvar=0.7003258045487328 Phases=2

New Load.load_p1ulv31748 conn=wye bus1=p1ulv31748.1.2 kV=0.2080002494301389 Vminpu=0.8 Vmaxpu=1.2 model=1 kW=3.70004 kvar=0.7493869570665965 Phases=2

New Load.load_p1ulv31808 conn=wye bus1=p1ulv31808.1.2 kV=0.2080002494301389 Vminpu=0.8 Vmaxpu=1.2 model=1 kW=2.92003 kvar=0.5898746577868357 Phases=2

New Load.load_p1ulv31817 conn=wye bus1=p1ulv31817.1.2 kV=0.2080002494301389 Vminpu=0.8 Vmaxpu=1.2 model=1 kW=4.08004 kvar=0.8306198770333432 Phases=2

New Load.load_p1ulv31859 conn=wye bus1=p1ulv31859.1.2.3 kV=0.48 Vminpu=0.8 Vmaxpu=1.2 model=1 kW=94.01089999999999 kvar=19.089727438997315 Phases=3

New Load.load_p1ulv31871 conn=wye bus1=p1ulv31871.1.2 kV=0.2080002494301389 Vminpu=0.8 Vmaxpu=1.2 model=1 kW=3.85004 kvar=0.7797671809452545 Phases=2

New Load.load_p1ulv31873 conn=wye bus1=p1ulv31873.1.2 kV=0.2080002494301389 Vminpu=0.8 Vmaxpu=1.2 model=1 kW=1.38001 kvar=0.28022298226153225 Phases=2

New Load.load_p1ulv31878 conn=wye bus1=p1ulv31878.1.2 kV=0.2080002494301389 Vminpu=0.8 Vmaxpu=1.2 model=1 kW=3.56004 kvar=0.7191629458284491 Phases=2

New Load.load_p1ulv31924 conn=wye bus1=p1ulv31924.1.2 kV=0.2080002494301389 Vminpu=0.8 Vmaxpu=1.2 model=1 kW=3.42003 kvar=0.6908795546178332 Phases=2

New Load.load_p1ulv31959 conn=wye bus1=p1ulv31959.1.2 kV=0.2080002494301389 Vminpu=0.8 Vmaxpu=1.2 model=1 kW=3.18003 kvar=0.6407237481987894 Phases=2

New Load.load_p1ulv31961 conn=wye bus1=p1ulv31961.1.2 kV=0.2080002494301389 Vminpu=0.8 Vmaxpu=1.2 model=1 kW=3.39003 kvar=0.6901467391837689 Phases=2

New Load.load_p1ulv31964 conn=wye bus1=p1ulv31964.1.2 kV=0.2080002494301389 Vminpu=0.8 Vmaxpu=1.2 model=1 kW=3.13003 kvar=0.6404763570309296 Phases=2

New Load.load_p1ulv31966 conn=wye bus1=p1ulv31966.1.2 kV=0.2080002494301389 Vminpu=0.8 Vmaxpu=1.2 model=1 kW=3.13003 kvar=0.6306495704677809 Phases=2

New Load.load_p1ulv32008 conn=wye bus1=p1ulv32008.1.2 kV=0.2080002494301389 Vminpu=0.8 Vmaxpu=1.2 model=1 kW=3.85004 kvar=0.7797671809452545 Phases=2

New Load.load_p1ulv32020 conn=wye bus1=p1ulv32020.1.2 kV=0.2080002494301389 Vminpu=0.8 Vmaxpu=1.2 model=1 kW=3.0100300000000004 kvar=0.6096359018765115 Phases=2

New Load.load_p1ulv32021 conn=wye bus1=p1ulv32021.1.2.3 kV=0.48 Vminpu=0.8 Vmaxpu=1.2 model=1 kW=20.1902 kvar=4.099794969932674 Phases=3

New Load.load_p1ulv32024 conn=wye bus1=p1ulv32024.1.2 kV=0.2080002494301389 Vminpu=0.8 Vmaxpu=1.2 model=1 kW=3.36003 kvar=0.6805230909267135 Phases=2

New Load.load_p1ulv32027 conn=wye bus1=p1ulv32027.1.2 kV=0.2080002494301389 Vminpu=0.8 Vmaxpu=1.2 model=1 kW=2.81003 kvar=0.570600928141371 Phases=2

New Load.load_p1ulv32073 conn=wye bus1=p1ulv32073.1.2 kV=0.2080002494301389 Vminpu=0.8 Vmaxpu=1.2 model=1 kW=3.20003 kvar=0.6497938057886328 Phases=2

New Load.load_p1ulv32084 conn=wye bus1=p1ulv32084.1.2 kV=0.2080002494301389 Vminpu=0.8 Vmaxpu=1.2 model=1 kW=3.46003 kvar=0.7007765735124853 Phases=2

New Load.load_p1ulv32087 conn=wye bus1=p1ulv32087.1.2 kV=0.2080002494301389 Vminpu=0.8 Vmaxpu=1.2 model=1 kW=3.49003 kvar=0.7105048699136965 Phases=2

New Load.load_p1ulv32090 conn=wye bus1=p1ulv32090.1.2 kV=0.2080002494301389 Vminpu=0.8 Vmaxpu=1.2 model=1 kW=2.79003 kvar=0.569452865461029 Phases=2

...